Version 4
SHEET 1 884 812
WIRE -512 512 -544 512
WIRE -416 512 -432 512
WIRE -304 512 -336 512
WIRE -96 512 -176 512
WIRE 64 512 -16 512
WIRE -304 576 -304 512
WIRE -176 576 -176 512
WIRE -464 736 -544 736
WIRE -336 736 -384 736
WIRE -304 736 -304 640
WIRE -304 736 -336 736
WIRE -176 736 -176 640
WIRE -128 736 -176 736
WIRE -96 736 -128 736
WIRE 64 736 -16 736
FLAG -544 512 0
FLAG 64 512 0
FLAG 64 736 0
FLAG -544 736 0
FLAG -336 736 NEXT
FLAG -128 736 FEXT
SYMBOL diff_tline -240 608 R0
WINDOW 39 287 -3 Center 2
SYMATTR SpiceLine Zo=47.21 Ze=53.64 To=0.87n Te=0.928n
SYMATTR InstName U1
SYMBOL voltage -416 512 R90
WINDOW 3 53 22 VRight 2
WINDOW 123 0 0 Left 0
WINDOW 0 -49 42 VRight 2
SYMATTR Value PULSE(0 0.200 0 0.5n 0.5n 2.5m)
SYMATTR SpiceLine Rser=0
SYMATTR InstName V3
SYMBOL res -112 528 R270
WINDOW 0 32 56 VTop 2
WINDOW 3 0 56 VBottom 2
SYMATTR InstName R1
SYMATTR Value 50
SYMBOL res 0 720 R90
WINDOW 0 0 56 VBottom 2
WINDOW 3 32 56 VTop 2
SYMATTR InstName R2
SYMATTR Value 50
SYMBOL res -368 720 R90
WINDOW 0 0 56 VBottom 2
WINDOW 3 32 56 VTop 2
SYMATTR InstName R3
SYMATTR Value 50
SYMBOL res -320 496 R90
WINDOW 0 0 56 VBottom 2
WINDOW 3 32 56 VTop 2
SYMATTR InstName R4
SYMATTR Value 50
TEXT -296 424 Left 2 !.tran 5n
TEXT -328 776 Left 2 !.include diff_tline.lib
