Version 4
SHEET 1 916 812
WIRE -512 512 -544 512
WIRE -416 512 -432 512
WIRE -304 512 -336 512
WIRE -96 512 -176 512
WIRE 64 512 -16 512
WIRE -304 576 -304 512
WIRE -176 576 -176 512
WIRE -464 736 -544 736
WIRE -336 736 -384 736
WIRE -304 736 -304 640
WIRE -304 736 -336 736
WIRE -176 736 -176 640
WIRE -128 736 -176 736
WIRE -96 736 -128 736
WIRE 64 736 -16 736
FLAG -544 512 0
FLAG 64 512 0
FLAG 64 736 0
FLAG -544 736 0
FLAG -336 736 NEXT
FLAG -128 736 FEXT
SYMBOL diff_tline -240 608 R0
WINDOW 39 448 -5 Center 2
SYMATTR SpiceLine Zo={Zo} Ze={Ze} To={sqrt(er_o)*L/c} Te={sqrt(er_e)*L/c}
SYMATTR InstName U1
SYMBOL voltage -416 512 R90
WINDOW 3 53 22 VRight 2
WINDOW 123 0 0 Left 0
WINDOW 0 -49 42 VRight 2
SYMATTR Value PULSE(0 0.200 0 0.5n 0.5n 2.5m)
SYMATTR InstName V3
SYMATTR SpiceLine Rser=0
SYMBOL res -112 528 R270
WINDOW 0 32 56 VTop 2
WINDOW 3 0 56 VBottom 2
SYMATTR InstName R1
SYMATTR Value 50
SYMBOL res 0 720 R90
WINDOW 0 0 56 VBottom 2
WINDOW 3 32 56 VTop 2
SYMATTR InstName R2
SYMATTR Value 50
SYMBOL res -368 720 R90
WINDOW 0 0 56 VBottom 2
WINDOW 3 32 56 VTop 2
SYMATTR InstName R3
SYMATTR Value 50
SYMBOL res -320 496 R90
WINDOW 0 0 56 VBottom 2
WINDOW 3 32 56 VTop 2
SYMATTR InstName R4
SYMATTR Value 50
TEXT -544 -24 Left 2 !.tran 5n
TEXT -328 776 Left 2 !.include diff_tline.lib
TEXT -544 136 Left 2 !.step param idx list 1 2 3 4
TEXT -544 184 Left 2 !.param S = table(idx, 1,1e-3, 2,2e-3, 3,3e-3, 4,10e-3)\n \n.param Zo = table(idx, 1,43.85, 2,47.21, 3,48.47, 4,49.94)\n \n.param Ze = table(idx, 1,56.60, 2,53.64, 3,52.38 , 4, 50.91)\n \n.param er_e=table(idx, 1,3.5, 2,3.45, 3,3.4 , 4, 3.29)\n \n.param er_o=table(idx, 1,2.9, 2,3.06, 3,3.12 , 4, 3.25)
TEXT -544 32 Left 2 !.param L 150e-3\n \n.param c 3e8
RECTANGLE Normal 176 432 -560 -48 2
